TEST AF SIMPEL MODEL
MESHMAKER1----*----2----*----3----*----4----*----5----*----6----*----7----*----8
XYZ
       00.
NX      30      10.0
NY      30      10.0
NZ       4       2.0







ENDFI
ROCKS----1----*----2----*----3----*----4----*----5----*----6----*----7----*----8
SAND1    2     2650.       .41   3.2E-11   4.2E-11   4.2E-15       2.2     750.0
        0.        0.      0.26       0.0                0.01
    6            .14       0.1      0.01       5.2   
    8           0.14       2.3      28.8      21.8  
 
CHEMP----1----o-Xylene data--3----*----4----*----5----*----6----*----7----*----8
     630.3      37.3     0.262     0.310       0.5
     417.6  -7.53357   1.40968  -3.10985  -2.85992
   106.168    -15.85     .5962 -3.443E-4  7.528E-8
     880.0     293.0    8.0E-6     273.0      1.60 
    -3.332   1.039E3 -1.768E-3  1.076E-6      369.
  2.975E-5        0.        0.        0.
        0.        0.        0.
MULTI----1----*----2----*----3----*----4----*----5----*----6----*----7----*----8
    3    4    3    6
START----1----*----2----*----3----*----4----*----5----*----6----*----7----*----8
----*----1 MOP: 123456789*123456789*1234 ---*----5----*----6----*----7----*----8
PARAM----1----*----2----*----3----*----4----*----5----*----6----*----7----*----8
   39000    9000100010000000010470 00000   2.13E-5       1.8
               3600.       -1.      1.e4A11 1    
     1.e-1
     1.E-5     1.E00                                   1.E-8
             1.013e5                 0.3                 0.0                20.0
NOVER
RPCAP----1----*----2----*----3----*----4----*----5----*----6----*----7----*----8
    6           .100       .05       .01        3.
    8          0.000      1.84      5.E4      5.24
TIMES----1----*----2----*----3----*----4----*----5----*----6----*----7----*----8
    3
        1.     1200.     2400.
GENER----1----*----2----*----3----*----4----*----5----*----6----*----7----*----8
A11 1INJ 1                         COM1    1.00e-5   2.676e6
A1150PRO15                         DELV    2.0e-10   1.013e5

TSXCD----1----*----2----*----3----*----4----*----5----*----6----*----7----*----8
    1         1
ENDCY----1----*----2----*----3----*----4----*----5----*----6----*----7----*----8
