REINHARD HOMOGEN
ROCKS----1----*----2----*----3----*----4----*----5----*----6----*----7----*----8
REIN1    2     2650.       .41   3.0E-11   3.0E-11   3.0E-11       2.6    1200.0
        0.        0.       .23       0.0      
   14            .05       .50       5.4
   12           0.05      3.37      2.14       5.4     0.041 
ATMO1    2     2650.       .41   5.0E-08   5.0E-08   5.0E-08       0.0   20000.0
        0.        0.       0.0       0.0
    2
    9

CHEMP----1----*--Oxygen data-3----*----4----*----5----*----6----*----7----*----8
     500.0        1.     0.265     0.213       0.9
      90.4  -2.08464        0.        0.        0.
       32.    30.170     .2287 -2.229E-4  8.244E-8
     1462.     293.0    8.0E-6     273.0      1.60
         0        0.      0.59    293.15     256.0
    1.3E-4        0.        0.        0.
        0.        0.        0.
MULTI----1----*----2----*----3----*----4----*----5----*----6----*----7----*----8
    3    3    3    6
START----1----*----2----*----3----*----4----*----5----*----6----*----7----*----8
----*----1 MOP: 123456789*123456789*1234 ---*----5----*----6----*----7----*----8
PARAM----1----*----2----*----3----*----4----*----5----*----6----*----7----*----8
   39000    9000200030000000010472 00300
             518400.       -1.      5.e3              9.8060
     1.e-2
     1.E-5     1.E00                                   1.E-8
           .1013E+06                0.13                  .0                10.0
NOVER
RPCAP----1----*----2----*----3----*----4----*----5----*----6----*----7----*----8
   14            .06      .082       4.5
    8           0.11      4.17      32.1      22.4
TIMES----1----*----2----*----3----*----4----*----5----*----6----*----7----*----8
    6
        1.     3600.     7200.    10800.    14400.    28800. 
GENER----1----*----2----*----3----*----4----*----5----*----6----*----7----*----8


INCON----1----*----2----*----3----*----4----*----5----*----6----*----7----*----8
ATM10           0.41000000E+00
           .1013E+06 0.1268502257167E+00 10.500000000000E+00                10.0

SINAM----1----*----2----*----3----*----4----*----5----*----6----*----7----*----8
      3601 .1013E+06     2500.   6.06e-6 
TSXCD----1----*----2----*----3----*----4----*----5----*----6----*----7----*----8
    4         1         2        15        30
ENDCY----1----*----2----*----3----*----4----*----5----*----6----*----7----*----8
