*rcc3* ... Code Intercomparison problem3: Radial flow from a CO2 Injection Well
ROCKS----1----*----2----*----3----*----4----*----5----*----6----*----7----*----8
SAND     2  2600.e00       .12  100.e-15  100.e-15  100.e-15      2.51      920.
   4.5e-10
   13            .15       .05       .05        3.
    7           .457       .00    5.1e-5      1.e7      .999
ATMO     2  2600.e00       .12  100.e-15  100.e-15  100.e-12      2.51      920.
   4.5e-10
   14            1.0        .0        1. 
    8
 
MULTI----1----*----2----*----3----*----4----*----5----*----6----*----7----*----8
    3    4    4    6
SELEC....2....3....4....5....6....7....8....9...10...11...12...13...14...15...16
    1                                       0    0    0    0    0    0    0    0
        .8        .8
SOLVR----1----*----2----*----3----*----4----*----5----*----6----*----7----*----8
5  Z1   O0    8.0e-1    1.0e-7
START----1----*----2----*----3----*----4----*----5----*----6----*----7----*----8
----*----1 MOP: 123456789*123456789*1234 ---*----5----*----6----*----7----*----8
PARAM----1----*----2----*----3----*----4----*----5----*----6----*----7----*----8
   3   1       12000300000010  4    3
              8.64e5       -1.      200.                800.
        1.
     1.E-5     1.E00                                        
             101300.                 .15                 0.0                 40.
FOFT ----1----*----2----*----3----*----4----*----5----*----6----*----7----*----8
AU1 1              20.7069E+010.2827E+00          0.1500E+00          -.1250E+02
AV1 1
AW1 1              20.7069E+010.0000E+00          0.1500E+00          -.3750E+02

GENER----1----*----2----*----3----*----4----*----5----*----6----*----7----*----8
BF1 1inj 1                         COM3      5.e-5
     
INCON
A11 1           0.00000000E+00
 1.0130000000000E+05 1.5000000000000E-01 1.0000000000000E+01 4.0000000000000E+01
A11 2           0.00000000E+00
 1.0130000000000E+05 1.5000000000000E-01 1.0000400000000E+01 4.0000000000000E+01
A11 3           0.00000000E+00
 1.0130000000000E+05 1.5000000000000E-01 1.0000800000000E+01 4.0000000000000E+01
A11 4           0.00000000E+00
 1.0130000000000E+05 1.5000000000000E-01 1.0001200000000E+01 4.0000000000000E+01
A11 5           0.00000000E+00
 1.0130000000000E+05 1.5000000000000E-01 1.0001600000000E+01 4.0000000000000E+01
A11 6           0.00000000E+00
 1.0130000000000E+05 1.5000000000000E-01 1.0002000000000E+01 4.0000000000000E+01
A11 7           0.00000000E+00
 1.0130000000000E+05 1.5000000000000E-01 1.0002400000000E+01 4.0000000000000E+01
A11 8           0.00000000E+00
 1.0130000000000E+05 1.5000000000000E-01 1.0002800000000E+01 4.0000000000000E+01
A11 9           0.00000000E+00
 1.0130000000000E+05 1.5000000000000E-01 1.0003200000000E+01 4.0000000000000E+01
A1110           0.00000000E+00
 1.0130000000000E+05 1.5000000000000E-01 1.0003600000000E+01 4.0000000000000E+01
A1111           0.00000000E+00
 1.0130000000000E+05 1.5000000000000E-01 1.0004000000000E+01 4.0000000000000E+01
A1112           0.00000000E+00
 1.0130000000000E+05 1.5000000000000E-01 1.0004400000000E+01 4.0000000000000E+01
A1113           0.00000000E+00
 1.0130000000000E+05 1.5000000000000E-01 1.0004800000000E+01 4.0000000000000E+01
A1114           0.00000000E+00
 1.0130000000000E+05 1.5000000000000E-01 1.0005200000000E+01 4.0000000000000E+01
A1115           0.00000000E+00
 1.0130000000000E+05 1.5000000000000E-01 1.0005600000000E+01 4.0000000000000E+01
A1116           0.00000000E+00
 1.0130000000000E+05 1.5000000000000E-01 1.0006000000000E+01 4.0000000000000E+01
A1117           0.00000000E+00
 1.0130000000000E+05 1.5000000000000E-01 1.0006400000000E+01 4.0000000000000E+01
A1118           0.00000000E+00
 1.0130000000000E+05 1.5000000000000E-01 1.0006800000000E+01 4.0000000000000E+01
A1119           0.00000000E+00
 1.0130000000000E+05 1.5000000000000E-01 1.0007200000000E+01 4.0000000000000E+01
A1120           0.00000000E+00
 1.0130000000000E+05 1.5000000000000E-01 1.0007600000000E+01 4.0000000000000E+01
A1121           0.00000000E+00
 1.0130000000000E+05 1.5000000000000E-01 1.0008000000000E+01 4.0000000000000E+01
A1122           0.00000000E+00
 1.0130000000000E+05 1.5000000000000E-01 1.0008400000000E+01 4.0000000000000E+01
A1123           0.00000000E+00
 1.0130000000000E+05 1.5000000000000E-01 1.0008800000000E+01 4.0000000000000E+01
A1124           0.00000000E+00
 1.0130000000000E+05 1.5000000000000E-01 1.0009200000000E+01 4.0000000000000E+01
A1125           0.00000000E+00
 1.0130000000000E+05 1.5000000000000E-01 1.0009600000000E+01 4.0000000000000E+01
A1126           0.00000000E+00
 1.0130000000000E+05 1.5000000000000E-01 1.0010000000000E+01 4.0000000000000E+01
A1127           0.00000000E+00
 1.0130000000000E+05 1.5000000000000E-01 1.0010400000000E+01 4.0000000000000E+01
A1128           0.00000000E+00
 1.0130000000000E+05 1.5000000000000E-01 1.0010800000000E+01 4.0000000000000E+01
A1129           0.00000000E+00
 1.0130000000000E+05 1.5000000000000E-01 1.0011200000000E+01 4.0000000000000E+01
A1130           0.00000000E+00
 1.0130000000000E+05 1.5000000000000E-01 1.0011600000000E+01 4.0000000000000E+01
A1131           0.00000000E+00
 1.0130000000000E+05 1.5000000000000E-01 1.0012000000000E+01 4.0000000000000E+01
A1132           0.00000000E+00
 1.0130000000000E+05 1.5000000000000E-01 1.0012400000000E+01 4.0000000000000E+01
A1133           0.00000000E+00
 1.0130000000000E+05 1.5000000000000E-01 1.0012800000000E+01 4.0000000000000E+01
A1134           0.00000000E+00
 1.0130000000000E+05 1.5000000000000E-01 1.0013200000000E+01 4.0000000000000E+01
A1135           0.00000000E+00
 1.0130000000000E+05 1.5000000000000E-01 1.0013600000000E+01 4.0000000000000E+01
A1136           0.00000000E+00
 1.0130000000000E+05 1.5000000000000E-01 1.0014000000000E+01 4.0000000000000E+01
A1137           0.00000000E+00
 1.0130000000000E+05 1.5000000000000E-01 1.0014400000000E+01 4.0000000000000E+01
A1138           0.00000000E+00
 1.0130000000000E+05 1.5000000000000E-01 1.0014800000000E+01 4.0000000000000E+01
A1139           0.00000000E+00
 1.0130000000000E+05 1.5000000000000E-01 1.0015200000000E+01 4.0000000000000E+01
A1140           0.00000000E+00
 1.0130000000000E+05 1.5000000000000E-01 1.0015600000000E+01 4.0000000000000E+01
A1141           0.00000000E+00
 1.0130000000000E+05 1.5000000000000E-01 1.0016000000000E+01 4.0000000000000E+01
A1142           0.00000000E+00
 1.0130000000000E+05 1.5000000000000E-01 1.0016400000000E+01 4.0000000000000E+01
A1143           0.00000000E+00
 1.0130000000000E+05 1.5000000000000E-01 1.0016800000000E+01 4.0000000000000E+01
A1144           0.00000000E+00
 1.0130000000000E+05 1.5000000000000E-01 1.0017200000000E+01 4.0000000000000E+01
A1145           0.00000000E+00
 1.0130000000000E+05 1.5000000000000E-01 1.0017600000000E+01 4.0000000000000E+01
A1146           0.00000000E+00
 1.0130000000000E+05 1.5000000000000E-01 1.0018000000000E+01 4.0000000000000E+01
A1147           0.00000000E+00
 1.0130000000000E+05 1.5000000000000E-01 1.0018400000000E+01 4.0000000000000E+01
A1148           0.00000000E+00
 1.0130000000000E+05 1.5000000000000E-01 1.0018800000000E+01 4.0000000000000E+01
A1149           0.00000000E+00
 1.0130000000000E+05 1.5000000000000E-01 1.0019200000000E+01 4.0000000000000E+01
A1150           0.00000000E+00
 1.0130000000000E+05 1.5000000000000E-01 1.0019600000000E+01 4.0000000000000E+01
A1151           0.00000000E+00
 1.0130000000000E+05 1.5000000000000E-01 1.0020000000000E+01 4.0000000000000E+01
A1152           0.00000000E+00
 1.0130000000000E+05 1.5000000000000E-01 1.0020400000000E+01 4.0000000000000E+01
A1153           0.00000000E+00
 1.0130000000000E+05 1.5000000000000E-01 1.0020800000000E+01 4.0000000000000E+01
A1154           0.00000000E+00
 1.0130000000000E+05 1.5000000000000E-01 1.0021200000000E+01 4.0000000000000E+01
A1155           0.00000000E+00
 1.0130000000000E+05 1.5000000000000E-01 1.0021600000000E+01 4.0000000000000E+01
A1156           0.00000000E+00
 1.0130000000000E+05 1.5000000000000E-01 1.0022000000000E+01 4.0000000000000E+01
A1157           0.00000000E+00
 1.0130000000000E+05 1.5000000000000E-01 1.0022400000000E+01 4.0000000000000E+01
A1158           0.00000000E+00
 1.0130000000000E+05 1.5000000000000E-01 1.0022800000000E+01 4.0000000000000E+01
A1159           0.00000000E+00
 1.0130000000000E+05 1.5000000000000E-01 1.0023200000000E+01 4.0000000000000E+01
A1160           0.00000000E+00
 1.0130000000000E+05 1.5000000000000E-01 1.0023600000000E+01 4.0000000000000E+01
A1161           0.00000000E+00
 1.0130000000000E+05 1.5000000000000E-01 1.0024000000000E+01 4.0000000000000E+01
A1162           0.00000000E+00
 1.0130000000000E+05 1.5000000000000E-01 1.0024400000000E+01 4.0000000000000E+01
A1163           0.00000000E+00
 1.0130000000000E+05 1.5000000000000E-01 1.0024800000000E+01 4.0000000000000E+01
A1164           0.00000000E+00
 1.0130000000000E+05 1.5000000000000E-01 1.0025200000000E+01 4.0000000000000E+01
A1165           0.00000000E+00
 1.0130000000000E+05 1.5000000000000E-01 1.0025600000000E+01 4.0000000000000E+01
A1166           0.00000000E+00
 1.0130000000000E+05 1.5000000000000E-01 1.0026000000000E+01 4.0000000000000E+01
A1167           0.00000000E+00
 1.0130000000000E+05 1.5000000000000E-01 1.0026400000000E+01 4.0000000000000E+01
A1168           0.00000000E+00
 1.0130000000000E+05 1.5000000000000E-01 1.0026800000000E+01 4.0000000000000E+01
A1169           0.00000000E+00
 1.0130000000000E+05 1.5000000000000E-01 1.0027200000000E+01 4.0000000000000E+01
A1170           0.00000000E+00
 1.0130000000000E+05 1.5000000000000E-01 1.0027600000000E+01 4.0000000000000E+01
A1171           0.00000000E+00
 1.0130000000000E+05 1.5000000000000E-01 1.0028000000000E+01 4.0000000000000E+01
A1172           0.00000000E+00
 1.0130000000000E+05 1.5000000000000E-01 1.0028400000000E+01 4.0000000000000E+01
A1173           0.00000000E+00
 1.0130000000000E+05 1.5000000000000E-01 1.0028800000000E+01 4.0000000000000E+01
A1174           0.00000000E+00
 1.0130000000000E+05 1.5000000000000E-01 1.0029200000000E+01 4.0000000000000E+01
A1175           0.00000000E+00
 1.0130000000000E+05 1.5000000000000E-01 1.0029600000000E+01 4.0000000000000E+01
A1176           0.00000000E+00
 1.0130000000000E+05 1.5000000000000E-01 1.0030000000000E+01 4.0000000000000E+01
A1177           0.00000000E+00
 1.0130000000000E+05 1.5000000000000E-01 1.0030400000000E+01 4.0000000000000E+01
A1178           0.00000000E+00
 1.0130000000000E+05 1.5000000000000E-01 1.0030800000000E+01 4.0000000000000E+01
A1179           0.00000000E+00
 1.0130000000000E+05 1.5000000000000E-01 1.0031200000000E+01 4.0000000000000E+01
A1180           0.00000000E+00
 1.0130000000000E+05 1.5000000000000E-01 1.0031600000000E+01 4.0000000000000E+01
A1181           0.00000000E+00
 1.0130000000000E+05 1.5000000000000E-01 1.0032000000000E+01 4.0000000000000E+01
A1182           0.00000000E+00
 1.0130000000000E+05 1.5000000000000E-01 1.0032400000000E+01 4.0000000000000E+01
A1183           0.00000000E+00
 1.0130000000000E+05 1.5000000000000E-01 1.0032800000000E+01 4.0000000000000E+01
A1184           0.00000000E+00
 1.0130000000000E+05 1.5000000000000E-01 1.0033200000000E+01 4.0000000000000E+01
A1185           0.00000000E+00
 1.0130000000000E+05 1.5000000000000E-01 1.0033600000000E+01 4.0000000000000E+01
A1186           0.00000000E+00
 1.0130000000000E+05 1.5000000000000E-01 1.0034000000000E+01 4.0000000000000E+01
A1187           0.00000000E+00
 1.0130000000000E+05 1.5000000000000E-01 1.0034400000000E+01 4.0000000000000E+01
A1188           0.00000000E+00
 1.0130000000000E+05 1.5000000000000E-01 1.0034800000000E+01 4.0000000000000E+01
A1189           0.00000000E+00
 1.0130000000000E+05 1.5000000000000E-01 1.0035200000000E+01 4.0000000000000E+01
A1190           0.00000000E+00
 1.0130000000000E+05 1.5000000000000E-01 1.0035600000000E+01 4.0000000000000E+01
A1191           0.00000000E+00
 1.0130000000000E+05 1.5000000000000E-01 1.0036000000000E+01 4.0000000000000E+01
A1192           0.00000000E+00
 1.0130000000000E+05 1.5000000000000E-01 1.0036400000000E+01 4.0000000000000E+01
A1193           0.00000000E+00
 1.0130000000000E+05 1.5000000000000E-01 1.0036800000000E+01 4.0000000000000E+01
A1194           0.00000000E+00
 1.0130000000000E+05 1.5000000000000E-01 1.0037200000000E+01 4.0000000000000E+01
A1195           0.00000000E+00
 1.0130000000000E+05 1.5000000000000E-01 1.0037600000000E+01 4.0000000000000E+01
A1196           0.00000000E+00
 1.0130000000000E+05 1.5000000000000E-01 1.0038000000000E+01 4.0000000000000E+01
A1197           0.00000000E+00
 1.0130000000000E+05 1.5000000000000E-01 1.0038400000000E+01 4.0000000000000E+01
A1198           0.00000000E+00
 1.0130000000000E+05 1.5000000000000E-01 1.0038800000000E+01 4.0000000000000E+01
A1199           0.00000000E+00
 1.0130000000000E+05 1.5000000000000E-01 1.0039200000000E+01 4.0000000000000E+01
B11 1           0.00000000E+00
 1.0130000000000E+05 1.5000000000000E-01 1.0039600000000E+01 4.0000000000000E+01
B11 2           0.00000000E+00
 1.0130000000000E+05 1.5000000000000E-01 1.0040000000000E+01 4.0000000000000E+01
B11 3           0.00000000E+00
 1.0130000000000E+05 1.5000000000000E-01 1.0040400000000E+01 4.0000000000000E+01
B11 4           0.00000000E+00
 1.0130000000000E+05 1.5000000000000E-01 1.0040800000000E+01 4.0000000000000E+01
B11 5           0.00000000E+00
 1.0130000000000E+05 1.5000000000000E-01 1.0041200000000E+01 4.0000000000000E+01
B11 6           0.00000000E+00
 1.0130000000000E+05 1.5000000000000E-01 1.0041600000000E+01 4.0000000000000E+01
B11 7           0.00000000E+00
 1.0130000000000E+05 1.5000000000000E-01 1.0042000000000E+01 4.0000000000000E+01
B11 8           0.00000000E+00
 1.0130000000000E+05 1.5000000000000E-01 1.0042400000000E+01 4.0000000000000E+01
B11 9           0.00000000E+00
 1.0130000000000E+05 1.5000000000000E-01 1.0042800000000E+01 4.0000000000000E+01
B1110           0.00000000E+00
 1.0130000000000E+05 1.5000000000000E-01 1.0043200000000E+01 4.0000000000000E+01
B1111           0.00000000E+00
 1.0130000000000E+05 1.5000000000000E-01 1.0043600000000E+01 4.0000000000000E+01
B1112           0.00000000E+00
 1.0130000000000E+05 1.5000000000000E-01 1.0044000000000E+01 4.0000000000000E+01
B1113           0.00000000E+00
 1.0130000000000E+05 1.5000000000000E-01 1.0044400000000E+01 4.0000000000000E+01
B1114           0.00000000E+00
 1.0130000000000E+05 1.5000000000000E-01 1.0044800000000E+01 4.0000000000000E+01
B1115           0.00000000E+00
 1.0130000000000E+05 1.5000000000000E-01 1.0045200000000E+01 4.0000000000000E+01
B1116           0.00000000E+00
 1.0130000000000E+05 1.5000000000000E-01 1.0045600000000E+01 4.0000000000000E+01
B1117           0.00000000E+00
 1.0130000000000E+05 1.5000000000000E-01 1.0046000000000E+01 4.0000000000000E+01
B1118           0.00000000E+00
 1.0130000000000E+05 1.5000000000000E-01 1.0046400000000E+01 4.0000000000000E+01
B1119           0.00000000E+00
 1.0130000000000E+05 1.5000000000000E-01 1.0046800000000E+01 4.0000000000000E+01
B1120           0.00000000E+00
 1.0130000000000E+05 1.5000000000000E-01 1.0047200000000E+01 4.0000000000000E+01
B1121           0.00000000E+00
 1.0130000000000E+05 1.5000000000000E-01 1.0047600000000E+01 4.0000000000000E+01
B1122           0.00000000E+00
 1.0130000000000E+05 1.5000000000000E-01 1.0048000000000E+01 4.0000000000000E+01
B1123           0.00000000E+00
 1.0130000000000E+05 1.5000000000000E-01 1.0048400000000E+01 4.0000000000000E+01
B1124           0.00000000E+00
 1.0130000000000E+05 1.5000000000000E-01 1.0048800000000E+01 4.0000000000000E+01
B1125           0.00000000E+00
 1.0130000000000E+05 1.5000000000000E-01 1.0049200000000E+01 4.0000000000000E+01
B1126           0.00000000E+00
 1.0130000000000E+05 1.5000000000000E-01 1.0049600000000E+01 4.0000000000000E+01
B1127           0.00000000E+00
 1.0130000000000E+05 1.5000000000000E-01 1.0050000000000E+01 4.0000000000000E+01
B1128           0.00000000E+00
 1.0130000000000E+05 1.5000000000000E-01 1.0050400000000E+01 4.0000000000000E+01
B1129           0.00000000E+00
 1.0130000000000E+05 1.5000000000000E-01 1.0050800000000E+01 4.0000000000000E+01
B1130           0.00000000E+00
 1.0130000000000E+05 1.5000000000000E-01 1.0051200000000E+01 4.0000000000000E+01
B1131           0.00000000E+00
 1.0130000000000E+05 1.5000000000000E-01 1.0051600000000E+01 4.0000000000000E+01
B1132           0.00000000E+00
 1.0130000000000E+05 1.5000000000000E-01 1.0052000000000E+01 4.0000000000000E+01
B1133           0.00000000E+00
 1.0130000000000E+05 1.5000000000000E-01 1.0052400000000E+01 4.0000000000000E+01
B1134           0.00000000E+00
 1.0130000000000E+05 1.5000000000000E-01 1.0052800000000E+01 4.0000000000000E+01
B1135           0.00000000E+00
 1.0130000000000E+05 1.5000000000000E-01 1.0053200000000E+01 4.0000000000000E+01
B1136           0.00000000E+00
 1.0130000000000E+05 1.5000000000000E-01 1.0053600000000E+01 4.0000000000000E+01
B1137           0.00000000E+00
 1.0130000000000E+05 1.5000000000000E-01 1.0054000000000E+01 4.0000000000000E+01
B1138           0.00000000E+00
 1.0130000000000E+05 1.5000000000000E-01 1.0054400000000E+01 4.0000000000000E+01
B1139           0.00000000E+00
 1.0130000000000E+05 1.5000000000000E-01 1.0054800000000E+01 4.0000000000000E+01
B1140           0.00000000E+00
 1.0130000000000E+05 1.5000000000000E-01 1.0055200000000E+01 4.0000000000000E+01
B1141           0.00000000E+00
 1.0130000000000E+05 1.5000000000000E-01 1.0055600000000E+01 4.0000000000000E+01
B1142           0.00000000E+00
 1.0130000000000E+05 1.5000000000000E-01 1.0056000000000E+01 4.0000000000000E+01
B1143           0.00000000E+00
 1.0130000000000E+05 1.5000000000000E-01 1.0056400000000E+01 4.0000000000000E+01
B1144           0.00000000E+00
 1.0130000000000E+05 1.5000000000000E-01 1.0056800000000E+01 4.0000000000000E+01
B1145           0.00000000E+00
 1.0130000000000E+05 1.5000000000000E-01 1.0057200000000E+01 4.0000000000000E+01
B1146           0.00000000E+00
 1.0130000000000E+05 1.5000000000000E-01 1.0057600000000E+01 4.0000000000000E+01
B1147           0.00000000E+00
 1.0130000000000E+05 1.5000000000000E-01 1.0058000000000E+01 4.0000000000000E+01
B1148           0.00000000E+00
 1.0130000000000E+05 1.5000000000000E-01 1.0058400000000E+01 4.0000000000000E+01
B1149           0.00000000E+00
 1.0130000000000E+05 1.5000000000000E-01 1.0058800000000E+01 4.0000000000000E+01
B1150           0.00000000E+00
 1.0130000000000E+05 1.5000000000000E-01 1.0059200000000E+01 4.0000000000000E+01
B1151           0.00000000E+00
 1.0130000000000E+05 1.5000000000000E-01 1.0059600000000E+01 4.0000000000000E+01
B1152           0.00000000E+00
 1.0130000000000E+05 1.5000000000000E-01 1.0060000000000E+01 4.0000000000000E+01
B1153           0.00000000E+00
 1.0130000000000E+05 1.5000000000000E-01 1.0060400000000E+01 4.0000000000000E+01
B1154           0.00000000E+00
 1.0130000000000E+05 1.5000000000000E-01 1.0060800000000E+01 4.0000000000000E+01
B1155           0.00000000E+00
 1.0130000000000E+05 1.5000000000000E-01 1.0061200000000E+01 4.0000000000000E+01
B1156           0.00000000E+00
 1.0130000000000E+05 1.5000000000000E-01 1.0061600000000E+01 4.0000000000000E+01
B1157           0.00000000E+00
 1.0130000000000E+05 1.5000000000000E-01 1.0062000000000E+01 4.0000000000000E+01
B1158           0.00000000E+00
 1.0130000000000E+05 1.5000000000000E-01 1.0062400000000E+01 4.0000000000000E+01
B1159           0.00000000E+00
 1.0130000000000E+05 1.5000000000000E-01 1.0062800000000E+01 4.0000000000000E+01
B1160           0.00000000E+00
 1.0130000000000E+05 1.5000000000000E-01 1.0063200000000E+01 4.0000000000000E+01
B1161           0.00000000E+00
 1.0130000000000E+05 1.5000000000000E-01 1.0063600000000E+01 4.0000000000000E+01
B1162           0.00000000E+00
 1.0130000000000E+05 1.5000000000000E-01 1.0064000000000E+01 4.0000000000000E+01
B1163           0.00000000E+00
 1.0130000000000E+05 1.5000000000000E-01 1.0064400000000E+01 4.0000000000000E+01
B1164           0.00000000E+00
 1.0130000000000E+05 1.5000000000000E-01 1.0064800000000E+01 4.0000000000000E+01
B1165           0.00000000E+00
 1.0130000000000E+05 1.5000000000000E-01 1.0065200000000E+01 4.0000000000000E+01
B1166           0.00000000E+00
 1.0130000000000E+05 1.5000000000000E-01 1.0065600000000E+01 4.0000000000000E+01
B1167           0.00000000E+00
 1.0130000000000E+05 1.5000000000000E-01 1.0066000000000E+01 4.0000000000000E+01
B1168           0.00000000E+00
 1.0130000000000E+05 1.5000000000000E-01 1.0066400000000E+01 4.0000000000000E+01
B1169           0.00000000E+00
 1.0130000000000E+05 1.5000000000000E-01 1.0066800000000E+01 4.0000000000000E+01
B1170           0.00000000E+00
 1.0130000000000E+05 1.5000000000000E-01 1.0067200000000E+01 4.0000000000000E+01
B1171           0.00000000E+00
 1.0130000000000E+05 1.5000000000000E-01 1.0067600000000E+01 4.0000000000000E+01
B1172           0.00000000E+00
 1.0130000000000E+05 1.5000000000000E-01 1.0068000000000E+01 4.0000000000000E+01
B1173           0.00000000E+00
 1.0130000000000E+05 1.5000000000000E-01 1.0068400000000E+01 4.0000000000000E+01
B1174           0.00000000E+00
 1.0130000000000E+05 1.5000000000000E-01 1.0068800000000E+01 4.0000000000000E+01
B1175           0.00000000E+00
 1.0130000000000E+05 1.5000000000000E-01 1.0069200000000E+01 4.0000000000000E+01
B1176           0.00000000E+00
 1.0130000000000E+05 1.5000000000000E-01 1.0069600000000E+01 4.0000000000000E+01
B1177           0.00000000E+00
 1.0130000000000E+05 1.5000000000000E-01 1.0070000000000E+01 4.0000000000000E+01
B1178           0.00000000E+00
 1.0130000000000E+05 1.5000000000000E-01 1.0070400000000E+01 4.0000000000000E+01
B1179           0.00000000E+00
 1.0130000000000E+05 1.5000000000000E-01 1.0070800000000E+01 4.0000000000000E+01
B1180           0.00000000E+00
 1.0130000000000E+05 1.5000000000000E-01 1.0071200000000E+01 4.0000000000000E+01
B1181           0.00000000E+00
 1.0130000000000E+05 1.5000000000000E-01 1.0071600000000E+01 4.0000000000000E+01
B1182           0.00000000E+00
 1.0130000000000E+05 1.5000000000000E-01 1.0072000000000E+01 4.0000000000000E+01
B1183           0.00000000E+00
 1.0130000000000E+05 1.5000000000000E-01 1.0072400000000E+01 4.0000000000000E+01
B1184           0.00000000E+00
 1.0130000000000E+05 1.5000000000000E-01 1.0072800000000E+01 4.0000000000000E+01
B1185           0.00000000E+00
 1.0130000000000E+05 1.5000000000000E-01 1.0073200000000E+01 4.0000000000000E+01
B1186           0.00000000E+00
 1.0130000000000E+05 1.5000000000000E-01 1.0073600000000E+01 4.0000000000000E+01
B1187           0.00000000E+00
 1.0130000000000E+05 1.5000000000000E-01 1.0074000000000E+01 4.0000000000000E+01
B1188           0.00000000E+00
 1.0130000000000E+05 1.5000000000000E-01 1.0074400000000E+01 4.0000000000000E+01
B1189           0.00000000E+00
 1.0130000000000E+05 1.5000000000000E-01 1.0074800000000E+01 4.0000000000000E+01
B1190           0.00000000E+00
 1.0130000000000E+05 1.5000000000000E-01 1.0075200000000E+01 4.0000000000000E+01
B1191           0.00000000E+00
 1.0130000000000E+05 1.5000000000000E-01 1.0075600000000E+01 4.0000000000000E+01
B1192           0.00000000E+00
 1.0130000000000E+05 1.5000000000000E-01 1.0076000000000E+01 4.0000000000000E+01
B1193           0.00000000E+00
 1.0130000000000E+05 1.5000000000000E-01 1.0076400000000E+01 4.0000000000000E+01
B1194           0.00000000E+00
 1.0130000000000E+05 1.5000000000000E-01 1.0076800000000E+01 4.0000000000000E+01
B1195           0.00000000E+00
 1.0130000000000E+05 1.5000000000000E-01 1.0077200000000E+01 4.0000000000000E+01
B1196           0.00000000E+00
 1.0130000000000E+05 1.5000000000000E-01 1.0077600000000E+01 4.0000000000000E+01
B1197           0.00000000E+00
 1.0130000000000E+05 1.5000000000000E-01 1.0078000000000E+01 4.0000000000000E+01
B1198           0.00000000E+00
 1.0130000000000E+05 1.5000000000000E-01 1.0078400000000E+01 4.0000000000000E+01
B1199           0.00000000E+00
 1.0130000000000E+05 1.5000000000000E-01 1.0078800000000E+01 4.0000000000000E+01
C11 1           0.00000000E+00
 1.0130000000000E+05 1.5000000000000E-01 1.0079200000000E+01 4.0000000000000E+01
C11 2           0.00000000E+00
 1.0130000000000E+05 1.5000000000000E-01 1.0079600000000E+01 4.0000000000000E+01
C11 3           0.00000000E+00
 1.0130000000000E+05 1.5000000000000E-01 1.0080000000000E+01 4.0000000000000E+01
C11 4           0.00000000E+00
 1.0130000000000E+05 1.5000000000000E-01 1.0080400000000E+01 4.0000000000000E+01
C11 5           0.00000000E+00
 1.0130000000000E+05 1.5000000000000E-01 1.0080800000000E+01 4.0000000000000E+01
C11 6           0.00000000E+00
 1.0130000000000E+05 1.5000000000000E-01 1.0081200000000E+01 4.0000000000000E+01
C11 7           0.00000000E+00
 1.0130000000000E+05 1.5000000000000E-01 1.0081600000000E+01 4.0000000000000E+01
C11 8           0.00000000E+00
 1.0130000000000E+05 1.5000000000000E-01 1.0082000000000E+01 4.0000000000000E+01
C11 9           0.00000000E+00
 1.0130000000000E+05 1.5000000000000E-01 1.0082400000000E+01 4.0000000000000E+01
C1110           0.00000000E+00
 1.0130000000000E+05 1.5000000000000E-01 1.0082800000000E+01 4.0000000000000E+01
C1111           0.00000000E+00
 1.0130000000000E+05 1.5000000000000E-01 1.0083200000000E+01 4.0000000000000E+01
C1112           0.00000000E+00
 1.0130000000000E+05 1.5000000000000E-01 1.0083600000000E+01 4.0000000000000E+01
C1113           0.00000000E+00
 1.0130000000000E+05 1.5000000000000E-01 1.0084000000000E+01 4.0000000000000E+01
C1114           0.00000000E+00
 1.0130000000000E+05 1.5000000000000E-01 1.0084400000000E+01 4.0000000000000E+01
C1115           0.00000000E+00
 1.0130000000000E+05 1.5000000000000E-01 1.0084800000000E+01 4.0000000000000E+01
C1116           0.00000000E+00
 1.0130000000000E+05 1.5000000000000E-01 1.0085200000000E+01 4.0000000000000E+01
C1117           0.00000000E+00
 1.0130000000000E+05 1.5000000000000E-01 1.0085600000000E+01 4.0000000000000E+01
C1118           0.00000000E+00
 1.0130000000000E+05 1.5000000000000E-01 1.0086000000000E+01 4.0000000000000E+01
C1119           0.00000000E+00
 1.0130000000000E+05 1.5000000000000E-01 1.0086400000000E+01 4.0000000000000E+01
C1120           0.00000000E+00
 1.0130000000000E+05 1.5000000000000E-01 1.0086800000000E+01 4.0000000000000E+01
C1121           0.00000000E+00
 1.0130000000000E+05 1.5000000000000E-01 1.0087200000000E+01 4.0000000000000E+01
C1122           0.00000000E+00
 1.0130000000000E+05 1.5000000000000E-01 1.0087600000000E+01 4.0000000000000E+01
C1123           0.00000000E+00
 1.0130000000000E+05 1.5000000000000E-01 1.0088000000000E+01 4.0000000000000E+01
C1124           0.00000000E+00
 1.0130000000000E+05 1.5000000000000E-01 1.0088400000000E+01 4.0000000000000E+01
C1125           0.00000000E+00
 1.0130000000000E+05 1.5000000000000E-01 1.0088800000000E+01 4.0000000000000E+01
C1126           0.00000000E+00
 1.0130000000000E+05 1.5000000000000E-01 1.0089200000000E+01 4.0000000000000E+01
C1127           0.00000000E+00
 1.0130000000000E+05 1.5000000000000E-01 1.0089600000000E+01 4.0000000000000E+01
C1128           0.00000000E+00
 1.0130000000000E+05 1.5000000000000E-01 1.0090000000000E+01 4.0000000000000E+01
C1129           0.00000000E+00
 1.0130000000000E+05 1.5000000000000E-01 1.0090400000000E+01 4.0000000000000E+01
C1130           0.00000000E+00
 1.0130000000000E+05 1.5000000000000E-01 1.0090800000000E+01 4.0000000000000E+01
C1131           0.00000000E+00
 1.0130000000000E+05 1.5000000000000E-01 1.0091200000000E+01 4.0000000000000E+01
C1132           0.00000000E+00
 1.0130000000000E+05 1.5000000000000E-01 1.0091600000000E+01 4.0000000000000E+01
C1133           0.00000000E+00
 1.0130000000000E+05 1.5000000000000E-01 1.0092000000000E+01 4.0000000000000E+01
C1134           0.00000000E+00
 1.0130000000000E+05 1.5000000000000E-01 1.0092400000000E+01 4.0000000000000E+01
C1135           0.00000000E+00
 1.0130000000000E+05 1.5000000000000E-01 1.0092800000000E+01 4.0000000000000E+01
C1136           0.00000000E+00
 1.0130000000000E+05 1.5000000000000E-01 1.0093200000000E+01 4.0000000000000E+01
C1137           0.00000000E+00
 1.0130000000000E+05 1.5000000000000E-01 1.0093600000000E+01 4.0000000000000E+01
C1138           0.00000000E+00
 1.0130000000000E+05 1.5000000000000E-01 1.0094000000000E+01 4.0000000000000E+01
C1139           0.00000000E+00
 1.0130000000000E+05 1.5000000000000E-01 1.0094400000000E+01 4.0000000000000E+01
C1140           0.00000000E+00
 1.0130000000000E+05 1.5000000000000E-01 1.0094800000000E+01 4.0000000000000E+01
C1141           0.00000000E+00
 1.0130000000000E+05 1.5000000000000E-01 1.0095200000000E+01 4.0000000000000E+01
C1142           0.00000000E+00
 1.0130000000000E+05 1.5000000000000E-01 1.0095600000000E+01 4.0000000000000E+01
C1143           0.00000000E+00
 1.0130000000000E+05 1.5000000000000E-01 1.0096000000000E+01 4.0000000000000E+01
C1144           0.00000000E+00
 1.0130000000000E+05 1.5000000000000E-01 1.0096400000000E+01 4.0000000000000E+01
C1145           0.00000000E+00
 1.0130000000000E+05 1.5000000000000E-01 1.0096800000000E+01 4.0000000000000E+01
C1146           0.00000000E+00
 1.0130000000000E+05 1.5000000000000E-01 1.0097200000000E+01 4.0000000000000E+01
C1147           0.00000000E+00
 1.0130000000000E+05 1.5000000000000E-01 1.0097600000000E+01 4.0000000000000E+01
C1148           0.00000000E+00
 1.0130000000000E+05 1.5000000000000E-01 1.0098000000000E+01 4.0000000000000E+01
C1149           0.00000000E+00
 1.0130000000000E+05 1.5000000000000E-01 1.0098400000000E+01 4.0000000000000E+01